Circuit: * D:\Documents\eagle\CPSS_Radio_Board\Draft3.asc

