Circuit: * D:\Documents\eagle\CPSS_Radio_Board\Reverse_Voltage_Protection_Overvoltage.asc

Direct Newton iteration for .op point succeeded.

Date: Thu Oct 12 14:26:08 2017
Total elapsed time: 2.189 seconds.

tnom = 27
temp = 27
method = modified trap
totiter = 200051
traniter = 200034
tranpoints = 100018
accept = 100018
rejected = 0
matrix size = 15
fillins = 6
solver = Normal
Matrix Compiler1: 1.39 KB object code size  0.3/0.1/[0.1]
Matrix Compiler2: 1.36 KB object code size  0.1/0.2/[0.1]

