Circuit: * D:\Documents\eagle\CPSS_Radio_Board\Voltage_On_Off_Switch.asc

Direct Newton iteration failed to find .op point.  (Use ".option noopiter" to skip.)
Starting Gmin stepping
Increasing initial diagonal Gmin to 100
Increasing initial diagonal Gmin to 1000
Increasing initial diagonal Gmin to 10000
Increasing initial diagonal Gmin to 100000
Increasing initial diagonal Gmin to 1e+006
Initial Gmin=1e+006 failed
Gmin stepping failed

Starting source stepping with srcstepmethod=0
Source Step = 3.0303%
Source Step = 33.3333%
Source Step = 63.6364%
Source Step = 93.9394%
Source stepping succeeded in finding the operating point.


Date: Wed Oct 11 20:34:05 2017
Total elapsed time: 0.302 seconds.

tnom = 27
temp = 27
method = modified trap
totiter = 2864
traniter = 2082
tranpoints = 1042
accept = 1042
rejected = 0
matrix size = 76
fillins = 60
solver = Normal
Thread vector: 14.6/8.1[5] 6.1/3.6[5] 3.0/1.7[4] 0.3/0.7[1]  2592/500
Matrix Compiler1: 8.91 KB object code size  2.1/1.2/[0.5]
Matrix Compiler2: 8.16 KB object code size  0.7/1.3/[0.4]

