Circuit: * D:\Documents\eagle\CPSS_Radio_Board\Draft2.asc

Direct Newton iteration for .op point succeeded.
Ignoring empty pin current: Ix(u1:2)
Ignoring empty pin current: Ix(u1:2)

Date: Tue Oct 10 14:49:54 2017
Total elapsed time: 0.092 seconds.

tnom = 27
temp = 27
method = modified trap
totiter = 2104
traniter = 2082
tranpoints = 1042
accept = 1042
rejected = 0
matrix size = 14
fillins = 0
solver = Normal
Matrix Compiler1: 688 bytes object code size  0.3/0.2/[0.0]
Matrix Compiler2: off  [0.2]/0.2/0.2

